#!/sbin/sh

OUTFD=$2
ZIPFILE=$3

ui_print() {
  echo -n -e "ui_print $1\n" > /proc/self/fd/$OUTFD
  echo -n -e "ui_print\n" > /proc/self/fd/$OUTFD
}

ui_print "*******************************"
ui_print "   XOS Optimizer Installer     "
ui_print "*******************************"

mount /data 2>/dev/null

# Extract module files
ui_print "- Extracting module files"
unzip -o "$ZIPFILE" -d $MODPATH >&2

# Set permissions
ui_print "- Setting permissions"
set_perm_recursive $MODPATH 0 0 0755 0644
set_perm_recursive $MODPATH/system/etc/XOS-optimizer/scripts 0 0 0755 0755

ui_print "- Installation complete!"
ui_print "Please reboot your device"
